Circuit: * /Users/league/Desktop/Level-1/Lesson 7/Photosensor.asc

.OP point found by inspection.
.step rp=5000
.step rp=10000
.step rp=15000
.step rp=20000

Date: Sat Jul 21 11:28:28 2018
Total elapsed time: 0.135 seconds.

tnom = 27
temp = 27
method = modified trap
totiter = 292
traniter = 292
tranpoints = 134
accept = 132
rejected = 2
matrix size = 9
fillins = 0
solver = Normal
Matrix Compiler1:      30 opcodes  0.2/0.0/[0.0]
Matrix Compiler2:      57 opcodes

