Circuit: * /Users/league/Desktop/Level-1/Lesson 7/Photosensor.asc

.OP point found by inspection.

Date: Sat Jul 21 10:57:17 2018
Total elapsed time: 0.035 seconds.

tnom = 27
temp = 27
method = modified trap
totiter = 303
traniter = 303
tranpoints = 138
accept = 135
rejected = 3
matrix size = 9
fillins = 0
solver = Normal
Matrix Compiler1: 528 object code size  0.1/0.1/[0.0]
Matrix Compiler2: off

